Version 4
SHEET 1 880 680
TEXT 96 0 Left 2 !Vin  1 0   pulse(0v,5v,0s,1ns,1ns,1ms,2ms,3ms,4ms,5ms) \nR1 1  2  1k\nR2 2  3  330\nR3 2  0  2.2k\nL1 3 0    2.7mH\n.tran     100us   2.5ms\n.end
