Version 4
SHEET 1 880 680
TEXT -16 80 Left 2 !Vin 1 0 AC 5\nR1 1 2 1k\nR2 2 3 330\nR3 2 0 2.20k\nL1 3 0 2.7mH\n.ac dec 10  10H 100k\n.end
